  Version,23.2;

Timestep,
12; !- Number of Timesteps per Hour

  LifeCycleCost:Parameters,
    Life Cycle Cost Parameters,  !- Name
    EndOfYear,               !- Discounting Convention
    ConstantDollar,          !- Inflation Approach
    0.03,                    !- Real Discount Rate
    ,                        !- Nominal Discount Rate
    ,                        !- Inflation
    ,                        !- Base Date Month
    2011,                    !- Base Date Year
    ,                        !- Service Date Month
    2011,                    !- Service Date Year
    25,                      !- Length of Study Period in Years
    ,                        !- Tax rate
    None;                    !- Depreciation Method

  LifeCycleCost:UsePriceEscalation,
    U.S. Avg  Commercial-Electricity,  !- LCC Price Escalation Name
    Electricity,             !- Resource
    2011,                    !- Escalation Start Year
    January,                 !- Escalation Start Month
    0.9838,                  !- Year 1 Escalation
    0.9730,                  !- Year 2 Escalation
    0.9632,                  !- Year 3 Escalation
    0.9611,                  !- Year 4 Escalation
    0.9571,                  !- Year 5 Escalation
    0.9553,                  !- Year 6 Escalation
    0.9539,                  !- Year 7 Escalation
    0.9521,                  !- Year 8 Escalation
    0.9546,                  !- Year 9 Escalation
    0.9550,                  !- <none>
    0.9553,                  !- <none>
    0.9564,                  !- <none>
    0.9575,                  !- <none>
    0.9596,                  !- <none>
    0.9618,                  !- <none>
    0.9614,                  !- <none>
    0.9618,                  !- <none>
    0.9618,                  !- <none>
    0.9593,                  !- <none>
    0.9589,                  !- <none>
    0.9607,                  !- <none>
    0.9625,                  !- <none>
    0.9650,                  !- <none>
    0.9708,                  !- <none>
    0.9751,                  !- <none>
    0.9762,                  !- <none>
    0.9766,                  !- <none>
    0.9766,                  !- <none>
    0.9769,                  !- <none>
    0.9773;                  !- <none>

  LifeCycleCost:UsePriceEscalation,
    U.S. Avg  Commercial-Distillate Oil,  !- LCC Price Escalation Name
    FuelOilNo1,              !- Resource
    2011,                    !- Escalation Start Year
    January,                 !- Escalation Start Month
    0.9714,                  !- Year 1 Escalation
    0.9730,                  !- Year 2 Escalation
    0.9942,                  !- Year 3 Escalation
    1.0164,                  !- Year 4 Escalation
    1.0541,                  !- Year 5 Escalation
    1.0928,                  !- Year 6 Escalation
    1.1267,                  !- Year 7 Escalation
    1.1580,                  !- Year 8 Escalation
    1.1792,                  !- Year 9 Escalation
    1.1967,                  !- <none>
    1.2200,                  !- <none>
    1.2333,                  !- <none>
    1.2566,                  !- <none>
    1.2709,                  !- <none>
    1.2826,                  !- <none>
    1.2985,                  !- <none>
    1.3102,                  !- <none>
    1.3250,                  !- <none>
    1.3261,                  !- <none>
    1.3282,                  !- <none>
    1.3324,                  !- <none>
    1.3356,                  !- <none>
    1.3431,                  !- <none>
    1.3510,                  !- <none>
    1.3568,                  !- <none>
    1.3606,                  !- <none>
    1.3637,                  !- <none>
    1.3674,                  !- <none>
    1.3706,                  !- <none>
    1.3743;                  !- <none>

  LifeCycleCost:UsePriceEscalation,
    U.S. Avg  Commercial-Residual Oil,  !- LCC Price Escalation Name
    FuelOilNo2,              !- Resource
    2011,                    !- Escalation Start Year
    January,                 !- Escalation Start Month
    0.8469,                  !- Year 1 Escalation
    0.8257,                  !- Year 2 Escalation
    0.8681,                  !- Year 3 Escalation
    0.8988,                  !- Year 4 Escalation
    0.9289,                  !- Year 5 Escalation
    0.9604,                  !- Year 6 Escalation
    0.9897,                  !- Year 7 Escalation
    1.0075,                  !- Year 8 Escalation
    1.0314,                  !- Year 9 Escalation
    1.0554,                  !- <none>
    1.0861,                  !- <none>
    1.1278,                  !- <none>
    1.1497,                  !- <none>
    1.1620,                  !- <none>
    1.1743,                  !- <none>
    1.1852,                  !- <none>
    1.1948,                  !- <none>
    1.2037,                  !- <none>
    1.2071,                  !- <none>
    1.2119,                  !- <none>
    1.2139,                  !- <none>
    1.2194,                  !- <none>
    1.2276,                  !- <none>
    1.2365,                  !- <none>
    1.2420,                  !- <none>
    1.2461,                  !- <none>
    1.2509,                  !- <none>
    1.2550,                  !- <none>
    1.2591,                  !- <none>
    1.2638;                  !- <none>

  LifeCycleCost:UsePriceEscalation,
    U.S. Avg  Commercial-Natural gas,  !- LCC Price Escalation Name
    NaturalGas,              !- Resource
    2011,                    !- Escalation Start Year
    January,                 !- Escalation Start Month
    0.9823,                  !- Year 1 Escalation
    0.9557,                  !- Year 2 Escalation
    0.9279,                  !- Year 3 Escalation
    0.9257,                  !- Year 4 Escalation
    0.9346,                  !- Year 5 Escalation
    0.9412,                  !- Year 6 Escalation
    0.9512,                  !- Year 7 Escalation
    0.9645,                  !- Year 8 Escalation
    0.9856,                  !- Year 9 Escalation
    1.0067,                  !- <none>
    1.0222,                  !- <none>
    1.0410,                  !- <none>
    1.0610,                  !- <none>
    1.0787,                  !- <none>
    1.0942,                  !- <none>
    1.1098,                  !- <none>
    1.1220,                  !- <none>
    1.1308,                  !- <none>
    1.1386,                  !- <none>
    1.1486,                  !- <none>
    1.1619,                  !- <none>
    1.1763,                  !- <none>
    1.1918,                  !- <none>
    1.2118,                  !- <none>
    1.2284,                  !- <none>
    1.2439,                  !- <none>
    1.2605,                  !- <none>
    1.2772,                  !- <none>
    1.2938,                  !- <none>
    1.3115;                  !- <none>

  LifeCycleCost:UsePriceEscalation,
    U.S. Avg  Commercial-Coal,  !- LCC Price Escalation Name
    Coal,                    !- Resource
    2011,                    !- Escalation Start Year
    January,                 !- Escalation Start Month
    0.9970,                  !- Year 1 Escalation
    1.0089,                  !- Year 2 Escalation
    1.0089,                  !- Year 3 Escalation
    0.9941,                  !- Year 4 Escalation
    0.9941,                  !- Year 5 Escalation
    1.0000,                  !- Year 6 Escalation
    1.0030,                  !- Year 7 Escalation
    1.0059,                  !- Year 8 Escalation
    1.0089,                  !- Year 9 Escalation
    1.0119,                  !- <none>
    1.0148,                  !- <none>
    1.0178,                  !- <none>
    1.0208,                  !- <none>
    1.0267,                  !- <none>
    1.0297,                  !- <none>
    1.0356,                  !- <none>
    1.0415,                  !- <none>
    1.0534,                  !- <none>
    1.0564,                  !- <none>
    1.0593,                  !- <none>
    1.0653,                  !- <none>
    1.0712,                  !- <none>
    1.0742,                  !- <none>
    1.0801,                  !- <none>
    1.0831,                  !- <none>
    1.0831,                  !- <none>
    1.0861,                  !- <none>
    1.0890,                  !- <none>
    1.0920,                  !- <none>
    1.0950;                  !- <none>

  Building,
    Office with 3 zone horizontal,  !- Name
    -0,                      !- North Axis {deg}
    ,                        !- Terrain
    ,                        !- Loads Convergence Tolerance Value {W}
    ,                        !- Temperature Convergence Tolerance Value {deltaC}
    FullInteriorAndExterior, !- Solar Distribution
    50,                      !- Maximum Number of Warmup Days
    10;                      !- Minimum Number of Warmup Days

  Zone,
    Open Office 1-01,        !- Name
    ,                        !- Direction of Relative North {deg}
    0,                       !- X Origin {m}
    0,                       !- Y Origin {m}
    0,                       !- Z Origin {m}
    ,                        !- Type
    1,                       !- Multiplier
    ,                        !- Ceiling Height {m}
    ,                        !- Volume {m3}
    ,                        !- Floor Area {m2}
    ,                        !- Zone Inside Convection Algorithm
    ,                        !- Zone Outside Convection Algorithm
    Yes;                     !- Part of Total Floor Area

  Space,
    Office 1- 01,            !- Name
    Open Office 1-01,        !- Zone Name
    ,                        !- Ceiling Height {m}
    ,                        !- Volume {m3}
    ,                        !- Floor Area {m2}
    Office;                  !- Space Type

  SpaceList,
    Office,                  !- Name
    Office 2 - 04,           !- Space 1 Name
    Office 2 - 05,           !- Space 2 Name
    Office 1- 02,            !- Space 3 Name
    Office 2 - 06,           !- Space 4 Name
    Office 1- 01,            !- Space 5 Name
    Office 1- 03;            !- Space 6 Name

  ZoneInfiltration:DesignFlowRate,
    189.1-2009 - Office - OpenOffice - CZ1-3 Infiltration,  !- Name
    Office,                  !- Zone or ZoneList or Space or SpaceList Name
    Office Infil Quarter On, !- Schedule Name
    Flow/ExteriorArea,       !- Design Flow Rate Calculation Method
    ,                        !- Design Flow Rate {m3/s}
    ,                        !- Flow Rate per Floor Area {m3/s-m2}
    0.00030226,              !- Flow Rate per Exterior Surface Area {m3/s-m2}
    ,                        !- Air Changes per Hour {1/hr}
    ,                        !- Constant Term Coefficient
    ,                        !- Temperature Term Coefficient
    ,                        !- Velocity Term Coefficient
    ;                        !- Velocity Squared Term Coefficient

  BuildingSurface:Detailed,
    Face 0,                  !- Name
    Floor,                   !- Surface Type
    ExtSlabCarpet 4in ClimateZone 1-8,  !- Construction Name
    Open Office 1-01,        !- Zone Name
    Office 1- 01,            !- Space Name
    Ground,                  !- Outside Boundary Condition
    ,                        !- Outside Boundary Condition Object
    NoSun,                   !- Sun Exposure
    NoWind,                  !- Wind Exposure
    ,                        !- View Factor to Ground
    ,                        !- Number of Vertices
    2.1336,-3.6576,0,  !- X,Y,Z ==> Vertex 1 {m}
    2.1336,11.5824,0,  !- X,Y,Z ==> Vertex 2 {m}
    32.3088,11.5824,0,  !- X,Y,Z ==> Vertex 3 {m}
    32.3088,-3.6576,0;  !- X,Y,Z ==> Vertex 4 {m}

  BuildingSurface:Detailed,
    Face 1,                  !- Name
    Ceiling,                 !- Surface Type
    Interior Ceiling,        !- Construction Name
    Open Office 1-01,        !- Zone Name
    Office 1- 01,            !- Space Name
    Surface,                 !- Outside Boundary Condition
    Face 23,                 !- Outside Boundary Condition Object
    NoSun,                   !- Sun Exposure
    NoWind,                  !- Wind Exposure
    ,                        !- View Factor to Ground
    ,                        !- Number of Vertices
    32.3088,-3.6576,3.9624,  !- X,Y,Z ==> Vertex 1 {m}
    32.3088,11.5824,3.9624,  !- X,Y,Z ==> Vertex 2 {m}
    2.1336,11.5824,3.9624,  !- X,Y,Z ==> Vertex 3 {m}
    2.1336,-3.6576,3.9624;  !- X,Y,Z ==> Vertex 4 {m}

  BuildingSurface:Detailed,
    Face 2,                  !- Name
    Wall,                    !- Surface Type
    ASHRAE 189.1-2009 ExtWall Mass ClimateZone 3,  !- Construction Name
    Open Office 1-01,        !- Zone Name
    Office 1- 01,            !- Space Name
    Outdoors,                !- Outside Boundary Condition
    ,                        !- Outside Boundary Condition Object
    SunExposed,              !- Sun Exposure
    WindExposed,             !- Wind Exposure
    ,                        !- View Factor to Ground
    ,                        !- Number of Vertices
    2.1336,-3.6576,3.9624,  !- X,Y,Z ==> Vertex 1 {m}
    2.1336,11.5824,3.9624,  !- X,Y,Z ==> Vertex 2 {m}
    2.1336,11.5824,0,  !- X,Y,Z ==> Vertex 3 {m}
    2.1336,-3.6576,0;  !- X,Y,Z ==> Vertex 4 {m}

  FenestrationSurface:Detailed,
    Face 3,                  !- Name
    Window,                  !- Surface Type
    ASHRAE 189.1-2009 ExtWindow ClimateZone 3,  !- Construction Name
    Face 2,                  !- Building Surface Name
    ,                        !- Outside Boundary Condition Object
    ,                        !- View Factor to Ground
    ,                        !- Frame and Divider Name
    ,                        !- Multiplier
    ,                        !- Number of Vertices
    2.1336,7.0104,3.3528,  !- X,Y,Z ==> Vertex 1 {m}
    2.1336,7.0104,0.9144,  !- X,Y,Z ==> Vertex 2 {m}
    2.1336,0.9144,0.9144,  !- X,Y,Z ==> Vertex 3 {m}
    2.1336,0.9144,3.3528;  !- X,Y,Z ==> Vertex 4 {m}

  BuildingSurface:Detailed,
    Face 4,                  !- Name
    Wall,                    !- Surface Type
    ASHRAE 189.1-2009 ExtWall Mass ClimateZone 3,  !- Construction Name
    Open Office 1-01,        !- Zone Name
    Office 1- 01,            !- Space Name
    Outdoors,                !- Outside Boundary Condition
    ,                        !- Outside Boundary Condition Object
    SunExposed,              !- Sun Exposure
    WindExposed,             !- Wind Exposure
    ,                        !- View Factor to Ground
    ,                        !- Number of Vertices
    2.1336,11.5824,3.9624,  !- X,Y,Z ==> Vertex 1 {m}
    32.3088,11.5824,3.9624,  !- X,Y,Z ==> Vertex 2 {m}
    32.3088,11.5824,0,  !- X,Y,Z ==> Vertex 3 {m}
    2.1336,11.5824,0;  !- X,Y,Z ==> Vertex 4 {m}

  FenestrationSurface:Detailed,
    Face 5,                  !- Name
    Door,                    !- Surface Type
    Exterior Door,           !- Construction Name
    Face 4,                  !- Building Surface Name
    ,                        !- Outside Boundary Condition Object
    ,                        !- View Factor to Ground
    ,                        !- Frame and Divider Name
    ,                        !- Multiplier
    ,                        !- Number of Vertices
    20.1168,11.5824,2.1336,  !- X,Y,Z ==> Vertex 1 {m}
    20.1168,11.5824,0,  !- X,Y,Z ==> Vertex 2 {m}
    14.0208,11.5824,0,  !- X,Y,Z ==> Vertex 3 {m}
    14.0208,11.5824,2.1336;  !- X,Y,Z ==> Vertex 4 {m}

  BuildingSurface:Detailed,
    Face 6,                  !- Name
    Wall,                    !- Surface Type
    Interior Wall,           !- Construction Name
    Open Office 1-01,        !- Zone Name
    Office 1- 01,            !- Space Name
    Surface,                 !- Outside Boundary Condition
    Face 12,                 !- Outside Boundary Condition Object
    NoSun,                   !- Sun Exposure
    NoWind,                  !- Wind Exposure
    ,                        !- View Factor to Ground
    ,                        !- Number of Vertices
    32.3088,-3.6576,3.9624,  !- X,Y,Z ==> Vertex 1 {m}
    32.3088,-3.6576,0,  !- X,Y,Z ==> Vertex 2 {m}
    32.3088,11.5824,0,  !- X,Y,Z ==> Vertex 3 {m}
    32.3088,11.5824,3.9624;  !- X,Y,Z ==> Vertex 4 {m}

  BuildingSurface:Detailed,
    Face 7,                  !- Name
    Wall,                    !- Surface Type
    ASHRAE 189.1-2009 ExtWall Mass ClimateZone 3,  !- Construction Name
    Open Office 1-01,        !- Zone Name
    Office 1- 01,            !- Space Name
    Outdoors,                !- Outside Boundary Condition
    ,                        !- Outside Boundary Condition Object
    SunExposed,              !- Sun Exposure
    WindExposed,             !- Wind Exposure
    ,                        !- View Factor to Ground
    ,                        !- Number of Vertices
    32.3088,-3.6576,3.9624,  !- X,Y,Z ==> Vertex 1 {m}
    2.1336,-3.6576,3.9624,  !- X,Y,Z ==> Vertex 2 {m}
    2.1336,-3.6576,0,  !- X,Y,Z ==> Vertex 3 {m}
    32.3088,-3.6576,0;  !- X,Y,Z ==> Vertex 4 {m}

  ZoneInfiltration:DesignFlowRate,
    189.1-2009 - Office - OpenOffice - CZ1-3 Infiltration 4,  !- Name
    Office 1- 01,            !- Zone or ZoneList or Space or SpaceList Name
    Office Infil Quarter On, !- Schedule Name
    Flow/ExteriorArea,       !- Design Flow Rate Calculation Method
    ,                        !- Design Flow Rate {m3/s}
    ,                        !- Flow Rate per Floor Area {m3/s-m2}
    0.00030226,              !- Flow Rate per Exterior Surface Area {m3/s-m2}
    ,                        !- Air Changes per Hour {1/hr}
    ,                        !- Constant Term Coefficient
    ,                        !- Temperature Term Coefficient
    ,                        !- Velocity Term Coefficient
    ;                        !- Velocity Squared Term Coefficient

  ZoneInfiltration:EffectiveLeakageArea,
    Space Infiltration Effective Leakage Area 12,  !- Name
    Office 1- 01,            !- Zone or Space Name
    Office Infil Quarter On, !- Schedule Name
    100,                     !- Effective Air Leakage Area {cm2}
    0.1,                     !- Stack Coefficient
    0.1;                     !- Wind Coefficient

  ZoneInfiltration:EffectiveLeakageArea,
    Space Infiltration Effective Leakage Area 5,  !- Name
    Office 1- 01,            !- Zone or Space Name
    Office Infil Quarter On, !- Schedule Name
    100,                     !- Effective Air Leakage Area {cm2}
    0.1,                     !- Stack Coefficient
    0.1;                     !- Wind Coefficient

  ZoneControl:Thermostat,
    Open Office 1-01 Thermostat,  !- Name
    Open Office 1-01,        !- Zone or ZoneList Name
    Open Office 1-01 Thermostat Schedule,  !- Control Type Schedule Name
    ThermostatSetpoint:DualSetpoint,  !- Control 1 Object Type
    Thermostat Setpoint Dual Setpoint 1,  !- Control 1 Name
    ,                        !- Control 2 Object Type
    ,                        !- Control 2 Name
    ,                        !- Control 3 Object Type
    ,                        !- Control 3 Name
    ,                        !- Control 4 Object Type
    ,                        !- Control 4 Name
    0;                       !- Temperature Difference Between Cutout And Setpoint {deltaC}

  Schedule:Compact,
    Open Office 1-01 Thermostat Schedule,  !- Name
    Open Office 1-01 Thermostat Schedule Type Limits,  !- Schedule Type Limits Name
    Through: 12/31,          !- Field 1
    For: AllDays,            !- Field 2
    Until: 24:00,4;          !- Field 3

  ScheduleTypeLimits,
    Open Office 1-01 Thermostat Schedule Type Limits,  !- Name
    0,                       !- Lower Limit Value
    4,                       !- Upper Limit Value
    DISCRETE;                !- Numeric Type

  ThermostatSetpoint:DualSetpoint,
    Thermostat Setpoint Dual Setpoint 1,  !- Name
    Large Office HtgSetp,    !- Heating Setpoint Temperature Schedule Name
    Large Office ClgSetp;    !- Cooling Setpoint Temperature Schedule Name

  ScheduleTypeLimits,
    Temperature 3,           !- Name
    ,                        !- Lower Limit Value
    ,                        !- Upper Limit Value
    Continuous,              !- Numeric Type
    temperature;             !- Unit Type

  Schedule:Day:Interval,
    Large Office HtgSetp Rule 1 Day Schedule,  !- Name
    Temperature 3,           !- Schedule Type Limits Name
    No,                      !- Interpolate to Timestep
    24:00,                   !- Time 1
    15.6;                    !- Value Until Time 1

  Schedule:Day:Interval,
    Large Office HtgSetp Default Schedule,  !- Name
    Temperature 3,           !- Schedule Type Limits Name
    No,                      !- Interpolate to Timestep
    24:00,                   !- Time 1
    21.1111111111111;        !- Value Until Time 1

  Schedule:Day:Interval,
    Large Office HtgSetp Rule 2 Day Schedule,  !- Name
    Temperature 3,           !- Schedule Type Limits Name
    No,                      !- Interpolate to Timestep
    06:00,                   !- Time 1
    15.6,                    !- Value Until Time 1
    18:00,                   !- Time 2
    21,                      !- Value Until Time 2
    24:00,                   !- Time 3
    15.6;                    !- Value Until Time 3

  Schedule:Week:Daily,
    Large Office HtgSetp Week Rule - Jan1-Dec31,  !- Name
    Large Office HtgSetp Rule 1 Day Schedule,  !- Sunday Schedule:Day Name
    Large Office HtgSetp Default Schedule,  !- Monday Schedule:Day Name
    Large Office HtgSetp Default Schedule,  !- Tuesday Schedule:Day Name
    Large Office HtgSetp Default Schedule,  !- Wednesday Schedule:Day Name
    Large Office HtgSetp Default Schedule,  !- Thursday Schedule:Day Name
    Large Office HtgSetp Default Schedule,  !- Friday Schedule:Day Name
    Large Office HtgSetp Rule 2 Day Schedule,  !- Saturday Schedule:Day Name
    Large Office HtgSetp Default Schedule,  !- Holiday Schedule:Day Name
    Large Office HtgSetp Summer Design Day,  !- SummerDesignDay Schedule:Day Name
    Large Office HtgSetp Winter Design Day,  !- WinterDesignDay Schedule:Day Name
    Large Office HtgSetp Default Schedule,  !- CustomDay1 Schedule:Day Name
    Large Office HtgSetp Default Schedule;  !- CustomDay2 Schedule:Day Name

  Schedule:Year,
    Large Office HtgSetp,    !- Name
    Temperature 3,           !- Schedule Type Limits Name
    Large Office HtgSetp Week Rule - Jan1-Dec31,  !- Schedule:Week Name 1
    1,                       !- Start Month 1
    1,                       !- Start Day 1
    12,                      !- End Month 1
    31;                      !- End Day 1

  Schedule:Day:Interval,
    Large Office HtgSetp Summer Design Day,  !- Name
    Temperature 3,           !- Schedule Type Limits Name
    No,                      !- Interpolate to Timestep
    24:00,                   !- Time 1
    15.6;                    !- Value Until Time 1

  Schedule:Day:Interval,
    Large Office HtgSetp Winter Design Day,  !- Name
    Temperature 3,           !- Schedule Type Limits Name
    No,                      !- Interpolate to Timestep
    24:00,                   !- Time 1
    21;                      !- Value Until Time 1

  ScheduleTypeLimits,
    Temperature 5,           !- Name
    ,                        !- Lower Limit Value
    ,                        !- Upper Limit Value
    Continuous,              !- Numeric Type
    temperature;             !- Unit Type

  Schedule:Day:Interval,
    Large Office ClgSetp Rule 1 Day Schedule,  !- Name
    Temperature 5,           !- Schedule Type Limits Name
    No,                      !- Interpolate to Timestep
    24:00,                   !- Time 1
    26.7;                    !- Value Until Time 1

  Schedule:Day:Interval,
    Large Office ClgSetp Default Schedule,  !- Name
    Temperature 5,           !- Schedule Type Limits Name
    No,                      !- Interpolate to Timestep
    24:00,                   !- Time 1
    22.2222222222223;        !- Value Until Time 1

  Schedule:Day:Interval,
    Large Office ClgSetp Rule 2 Day Schedule,  !- Name
    Temperature 5,           !- Schedule Type Limits Name
    No,                      !- Interpolate to Timestep
    06:00,                   !- Time 1
    26.7,                    !- Value Until Time 1
    18:00,                   !- Time 2
    24,                      !- Value Until Time 2
    24:00,                   !- Time 3
    26.7;                    !- Value Until Time 3

  Schedule:Week:Daily,
    Large Office ClgSetp Week Rule - Jan1-Dec31,  !- Name
    Large Office ClgSetp Rule 1 Day Schedule,  !- Sunday Schedule:Day Name
    Large Office ClgSetp Default Schedule,  !- Monday Schedule:Day Name
    Large Office ClgSetp Default Schedule,  !- Tuesday Schedule:Day Name
    Large Office ClgSetp Default Schedule,  !- Wednesday Schedule:Day Name
    Large Office ClgSetp Default Schedule,  !- Thursday Schedule:Day Name
    Large Office ClgSetp Default Schedule,  !- Friday Schedule:Day Name
    Large Office ClgSetp Rule 2 Day Schedule,  !- Saturday Schedule:Day Name
    Large Office ClgSetp Default Schedule,  !- Holiday Schedule:Day Name
    Large Office ClgSetp Summer Design Day,  !- SummerDesignDay Schedule:Day Name
    Large Office ClgSetp Winter Design Day,  !- WinterDesignDay Schedule:Day Name
    Large Office ClgSetp Default Schedule,  !- CustomDay1 Schedule:Day Name
    Large Office ClgSetp Default Schedule;  !- CustomDay2 Schedule:Day Name

  Schedule:Year,
    Large Office ClgSetp,    !- Name
    Temperature 5,           !- Schedule Type Limits Name
    Large Office ClgSetp Week Rule - Jan1-Dec31,  !- Schedule:Week Name 1
    1,                       !- Start Month 1
    1,                       !- Start Day 1
    12,                      !- End Month 1
    31;                      !- End Day 1

  Schedule:Day:Interval,
    Large Office ClgSetp Summer Design Day,  !- Name
    Temperature 5,           !- Schedule Type Limits Name
    No,                      !- Interpolate to Timestep
    06:00,                   !- Time 1
    26.7,                    !- Value Until Time 1
    22:00,                   !- Time 2
    24,                      !- Value Until Time 2
    24:00,                   !- Time 3
    26.7;                    !- Value Until Time 3

  Schedule:Day:Interval,
    Large Office ClgSetp Winter Design Day,  !- Name
    Temperature 5,           !- Schedule Type Limits Name
    No,                      !- Interpolate to Timestep
    24:00,                   !- Time 1
    26.7;                    !- Value Until Time 1

  ZoneHVAC:EquipmentConnections,
    Open Office 1-01,        !- Zone Name
    Open Office 1-01 Equipment List,  !- Zone Conditioning Equipment List Name
    Open Office 1-01 Inlet Node List,  !- Zone Air Inlet Node or NodeList Name
    ,                        !- Zone Air Exhaust Node or NodeList Name
    Node 1,                  !- Zone Air Node Name
    Open Office 1-01 Return Node List;  !- Zone Return Air Node or NodeList Name

  NodeList,
    Open Office 1-01 Inlet Node List,  !- Name
    Node 6;                  !- Node 1 Name

  NodeList,
    Open Office 1-01 Return Node List,  !- Name
    Node 7;                  !- Node 1 Name

  ZoneHVAC:AirDistributionUnit,
    ADU VAV Rht 1-01,        !- Name
    Node 6,                  !- Air Distribution Unit Outlet Node Name
    AirTerminal:SingleDuct:VAV:Reheat,  !- Air Terminal Object Type
    VAV Rht 1-01;            !- Air Terminal Name

  AirTerminal:SingleDuct:VAV:Reheat,
    VAV Rht 1-01,            !- Name
    Always On Discrete hvac_library,  !- Availability Schedule Name
    VAV Rht 1-01 Damper Outlet,  !- Damper Air Outlet Node Name
    Node 19,                 !- Air Inlet Node Name
    Autosize,                !- Maximum Air Flow Rate {m3/s}
    Constant,                !- Zone Minimum Air Flow Input Method
    0.3,                     !- Constant Minimum Air Flow Fraction
    0,                       !- Fixed Minimum Air Flow Rate {m3/s}
    ,                        !- Minimum Air Flow Fraction Schedule Name
    Coil:Heating:Water,      !- Reheat Coil Object Type
    VAV HW Rht Coil 1-01,    !- Reheat Coil Name
    Autosize,                !- Maximum Hot Water or Steam Flow Rate {m3/s}
    0,                       !- Minimum Hot Water or Steam Flow Rate {m3/s}
    Node 6,                  !- Air Outlet Node Name
    0.001,                   !- Convergence Tolerance
    Normal,                  !- Damper Heating Action
    Autocalculate,           !- Maximum Flow per Zone Floor Area During Reheat {m3/s-m2}
    Autocalculate,           !- Maximum Flow Fraction During Reheat
    35;                      !- Maximum Reheat Air Temperature {C}

  Coil:Heating:Water,
    VAV HW Rht Coil 1-01,    !- Name
    Always On Discrete hvac_library,  !- Availability Schedule Name
    Autosize,                !- U-Factor Times Area Value {W/K}
    Autosize,                !- Maximum Water Flow Rate {m3/s}
    Node 27,                 !- Water Inlet Node Name
    Node 29,                 !- Water Outlet Node Name
    VAV Rht 1-01 Damper Outlet,  !- Air Inlet Node Name
    Node 6,                  !- Air Outlet Node Name
    UFactorTimesAreaAndDesignWaterFlowRate,  !- Performance Input Method
    Autosize,                !- Rated Capacity {W}
    82.2,                    !- Rated Inlet Water Temperature {C}
    16.6,                    !- Rated Inlet Air Temperature {C}
    71.1,                    !- Rated Outlet Water Temperature {C}
    32.2,                    !- Rated Outlet Air Temperature {C}
    0.5;                     !- Rated Ratio for Air and Water Convection

  Schedule:Constant,Always On Discrete hvac_library,OnOff hvac_library,1;

  ZoneHVAC:EquipmentList,
    Open Office 1-01 Equipment List,  !- Name
    SequentialLoad,          !- Load Distribution Scheme
    ZoneHVAC:AirDistributionUnit,  !- Zone Equipment 1 Object Type
    ADU VAV Rht 1-01,        !- Zone Equipment 1 Name